psse/psse-model-test/src/main/resources/five_bus_nodeBreaker_rev35.raw
 0,      100.0, 35, 0, 0, 60.00       / October 01, 2013 18:37:53
 17/04/24 UW ARCHIVE           100.0  1962 W Five Bus nodeBreaker Test Case

0 / END OF SYSTEM-WIDE DATA, BEGIN BUS DATA
    1,'Bus 1       ', 138.0000,3,   1,   1,   1,1.06000,   0.0000
    2,'Bus 2       ', 138.0000,1,   1,   1,   1,1.00000,   0.0000
    3,'Bus 3       ',  45.0000,1,   1,   1,   1,1.00000,   0.0000
    4,'Bus 4       ',  21.0000,1,   1,   1,   1,1.00000,   0.0000
    5,'Bus 5       ', 138.0000,1,   1,   1,   1,1.00000,   0.0000
0 / END OF BUS DATA, BEGIN LOAD DATA
    2,'1 ',1,   1,   1,    21.700,    12.700,     0.000,     0.000,     0.000,    -0.000,   1,1
    3,'1 ',1,   1,   1,    94.200,    19.000,     0.000,     0.000,     0.000,    -0.000,   1,1
    4,'1 ',1,   1,   1,    47.800,    -3.900,     0.000,     0.000,     0.000,    -0.000,   1,1
    5,'1 ',1,   1,   1,     7.600,     1.600,     0.000,     0.000,     0.000,    -0.000,   1,1
0 / END OF LOAD DATA, BEGIN FIXED SHUNT DATA
     2,'1 ', 1,     0.000,    19.000
0 / END OF FIXED SHUNT DATA, BEGIN GENERATOR DATA
    1,'1 ',   232.392,   -16.549,     0.000,     0.000,1.06000,    1,    2,   615.000,   0.00000,   1.00000,   0.00000,   0.00000,1.00000,1,  100.0, 10000.000,-10000.000, 0,   1,1.0000,   0,1.0000,   0,1.0000,   0,1.0000,0, 1.0000
0 / END OF GENERATOR DATA, BEGIN BRANCH DATA
    1,     2,'1 ', 0.01938, 0.05917,0.05280,   '',   0.00,   0.00,   0.00,   0.00,   0.00,   0.00,   0.00,   0.00,   0.00,   0.00,   0.00,   0.00,  0.00000,  0.00000,  0.00000,  0.00000,1,1,   0.0,   1,1.0000,   0,1.0000,   0,1.0000,   0,1.0000
0 / END OF BRANCH DATA, BEGIN SYSTEM SWITCHING DEVICE DATA
0 / END OF SYSTEM SWITCHING DEVICE DATA, BEGIN TRANSFORMER DATA
    1,    3,    0,'1 ',1,1,1,  0.00000,  0.00000,2,'2WT         ',1,   1,1.0000,   0,1.0000,   0,1.0000,   0,1.0000
 0.00000, 0.20912, 100.00
 0.97800,  0.000,   0.000,   0.00,   0.00,   0.00,   0.00,   0.00,   0.00,   0.00,   0.00,   0.00,   0.00,   0.00,   0.00,1,     3, 2, 1.50000, 0.51000, 1.50000, 0.51000,3, 0, 0.00000, 0.00000
 1.00000,  0.000
	1,    3,    4,'1 ',1,1,1,  0.00000,  0.00000,2,'3WT         ',1,   1,1.0000,   0,1.0000,   0,1.0000,   0,1.0000
 3.34279E+5, 1.34320E-1,   440.00, 2.62298E+5, 2.08070E-1,   280.00, 1.51500E+3, 1.06520E-1,   160.00,1.00000,   0.0000
 0.97800,  138.000,   0.000,   0.00,   0.00,   0.00,   0.00,   0.00,   0.00,   0.00,   0.00,   0.00,   0.00,   0.00,   0.00,0,     0, 0, 1.50000, 0.51000, 1.50000, 0.51000,3, 0, 0.00000, 0.00000
 0.98800,   45.000,   0.000,   0.00,   0.00,   0.00,   0.00,   0.00,   0.00,   0.00,   0.00,   0.00,   0.00,   0.00,   0.00,0,     0, 0, 1.50000, 0.51000, 1.50000, 0.51000,3, 0, 0.00000, 0.00000
 0.99800,   21.000,   0.000,   0.00,   0.00,   0.00,   0.00,   0.00,   0.00,   0.00,   0.00,   0.00,   0.00,   0.00,   0.00,1,     4, 2, 1.50000, 0.51000, 1.50000, 0.51000,3, 0, 0.00000, 0.00000
0 / END OF TRANSFORMER DATA, BEGIN AREA DATA
0 / END OF AREA DATA, BEGIN TWO-TERMINAL DC DATA
'EATL P1     ',0,    7.3650,      0.00,    500.00,      0.00,    7.3650,   0.10000,'R',      0.00,  50,   1.00000
  1, 1,17.30,12.70, 0.4800,21.3200, 500.0,0.83200,1.10000,1.20000,0.97500,0.01250,     0,     0, 0,     0,'1 ', 0.0000
  5, 1,20.50,18.00, 0.4800,21.3200, 240.0,1.73250,1.14190,1.20640,0.89680,0.01290,     0,     0, 0,     0,'1 ', 0.0000
0 / END OF TWO-TERMINAL DC DATA, BEGIN VOLTAGE SOURCE CONVERTER DATA
0 / END OF VOLTAGE SOURCE CONVERTER DATA, BEGIN IMPEDANCE CORRECTION DATA
0 / END OF IMPEDANCE CORRECTION DATA, BEGIN MULTI-TERMINAL DC DATA
0 / END OF MULTI-TERMINAL DC DATA, BEGIN MULTI-SECTION LINE DATA
0 / END OF MULTI-SECTION LINE DATA, BEGIN ZONE DATA
0 / END OF ZONE DATA, BEGIN INTER-AREA TRANSFER DATA
0 / END OF INTER-AREA TRANSFER DATA, BEGIN OWNER DATA
0 / END OF OWNER DATA, BEGIN FACTS CONTROL DEVICE DATA
0 / END OF FACTS CONTROL DEVICE DATA, BEGIN SWITCHED SHUNT DATA
	5,'1 ',0,0,1,1.00000,0.99000,    5,2,100.0,'        ',  100.00, 1, 1, 100.00
0 /END OF SWITCHED SHUNT DATA, BEGIN GNE DEVICE DATA
0 /END OF GNE DEVICE DATA, BEGIN INDUCTION MACHINE DATA
0 /END OF INDUCTION MACHINE DATA, BEGIN SUBSTATION DATA
	1,	'STATION 1',	0.0,	0.0,	0.1
	  / BEGIN SUBSTATION NODE DATA
		1,	'NB1',	    1,	1,	1.0,	0.0
		2,	'NB2',	    1,	1,	1.0,	0.0
		3,	'NLINE',    1,	1,	1.0,	0.0
		4,	'NT2W',	    1,	1,	1.0,	0.0
		5,	'NT3W',	    1,	1,	1.0,	0.0
		6,	'NDCLINE',	1,	1,	1.0,	0.0
		7,	'NGEN',	    1,	1,	1.0,	0.0
	0 / END OF SUBSTATION NODE DATA, BEGIN SUBSTATION SWITCHING DEVICE DATA
		1,	2,	'1 ',	'Sw-BusBars',		2,	1,	1,	0,	0,	0,	0
		2,	3,	'1 ',	'Sw-LineToBus2',	2,	1,	1,	0,	0,	0,	0
		2,	4,	'1 ',	'Sw-T2wToBus3',	    2,	1,	1,	0,	0,	0,	0
		2,	5,	'1 ',	'Sw-T3wToBus3Bus4',	2,	1,	1,	0,	0,	0,	0
		1,	6,	'1 ',	'Sw-LineDcToBus5',	2,	1,	1,	0,	0,	0,	0
		1,	7,	'1 ',	'Sw-Gen',			2,	1,	1,	0,	0,	0,	0
	0 / END OF SUBSTATION SWITCHING DEVICE DATA, BEGIN SUBSTATION TERMINAL DATA
		1,	7,	'M', '1 '
		1,	3,	'B',  2,	'1 '
		1,	4,	'2',  3,	'1 '
		1,	5,	'3',  3,	4,  '1 '
		1,	6,	'D',  'EATL P1     '
    0 / END OF SUBSTATION TERMINAL DATA
    2,	'STATION 2',	0.0,	0.0,	0.1
      / BEGIN SUBSTATION NODE DATA
    	1,	'NB1',	    2,	1,	1.0,	0.0
    	2,	'NB2',	    2,	1,	1.0,	0.0
    	3,	'NLINE',    2,	1,	1.0,	0.0
    	4,	'NLOAD',	2,	1,	1.0,	0.0
    	5,	'NFSHUNT',	2,	1,	1.0,	0.0
    0 / END OF SUBSTATION NODE DATA, BEGIN SUBSTATION SWITCHING DEVICE DATA
    	1,	2,	'1 ',	'Sw-BusBars',		2,	1,	1,	0,	0,	0,	0
    	1,	3,	'1 ',	'Sw-LineToBus1',	2,	1,	1,	0,	0,	0,	0
    	1,	4,	'1 ',	'Sw-Load',	        2,	1,	1,	0,	0,	0,	0
    	2,	5,	'1 ',	'Sw-FixedShunt',	2,	1,	1,	0,	0,	0,	0
    0 / END OF SUBSTATION SWITCHING DEVICE DATA, BEGIN SUBSTATION TERMINAL DATA
    	2,	4,	'L', '1 '
    	2,	5,	'F', '1 '
    	2,	3,	'B',  1,	'1 '
    0 / END OF SUBSTATION TERMINAL DATA
    3,	'STATION 3',	0.0,	0.0,	0.1
      / BEGIN SUBSTATION NODE DATA
    	1,	'NB1',	    3,	1,	1.0,	0.0
    	2,	'NB2',	    3,	1,	1.0,	0.0
    	3,	'NT2W',     3,	1,	1.0,	0.0
    	4,	'NT3W',	    3,	1,	1.0,	0.0
    	5,	'NLOAD',	3,	1,	1.0,	0.0
    0 / END OF SUBSTATION NODE DATA, BEGIN SUBSTATION SWITCHING DEVICE DATA
    	1,	2,	'1 ',	'Sw-BusBars',		2,	1,	1,	0,	0,	0,	0
    	1,	3,	'1 ',	'Sw-T2w',	        2,	1,	1,	0,	0,	0,	0
    	1,	4,	'1 ',	'Sw-T3w',	        2,	1,	1,	0,	0,	0,	0
    	2,	5,	'1 ',	'Sw-Load',	        2,	1,	1,	0,	0,	0,	0
    0 / END OF SUBSTATION SWITCHING DEVICE DATA, BEGIN SUBSTATION TERMINAL DATA
    	3,	5,	'L', '1 '
    	3,	3,	'2',  1,	'1 '
    	3,	4,	'3',  1,    4,	'1 '
    0 / END OF SUBSTATION TERMINAL DATA
    4,	'STATION 4',	0.0,	0.0,	0.1
      / BEGIN SUBSTATION NODE DATA
    	1,	'NB1',	    4,	1,	1.0,	0.0
    	2,	'NB2',	    4,	1,	1.0,	0.0
    	3,	'NT3W',	    4,	1,	1.0,	0.0
    	4,	'NLOAD',	4,	1,	1.0,	0.0
    0 / END OF SUBSTATION NODE DATA, BEGIN SUBSTATION SWITCHING DEVICE DATA
    	1,	2,	'1 ',	'Sw-BusBars',		2,	1,	1,	0,	0,	0,	0
    	1,	3,	'1 ',	'Sw-T3w',	        2,	1,	1,	0,	0,	0,	0
    	2,	4,	'1 ',	'Sw-Load',	        2,	1,	1,	0,	0,	0,	0
    0 / END OF SUBSTATION SWITCHING DEVICE DATA, BEGIN SUBSTATION TERMINAL DATA
    	4,	4,	'L', '1 '
    	4,	3,	'3',  1,    3,	'1 '
    0 / END OF SUBSTATION TERMINAL DATA
    5,	'STATION 5',	0.0,	0.0,	0.1
      / BEGIN SUBSTATION NODE DATA
    	1,	'NB1',	    5,	1,	1.0,	0.0
    	2,	'NB2',	    5,	1,	1.0,	0.0
    	3,	'NDCLINE',	5,	1,	1.0,	0.0
    	4,	'NLOAD',	5,	1,	1.0,	0.0
    	5,	'NSSHUNT',	5,	1,	1.0,	0.0
    0 / END OF SUBSTATION NODE DATA, BEGIN SUBSTATION SWITCHING DEVICE DATA
    	1,	2,	'1 ',	'Sw-BusBars',		2,	1,	1,	0,	0,	0,	0
    	1,	3,	'1 ',	'Sw-DcLine',        2,	1,	1,	0,	0,	0,	0
    	1,	4,	'1 ',	'Sw-Load',	        2,	1,	1,	0,	0,	0,	0
    	2,	5,	'1 ',	'Sw-SwitchedShunt', 2,	1,	1,	0,	0,	0,	0
    0 / END OF SUBSTATION SWITCHING DEVICE DATA, BEGIN SUBSTATION TERMINAL DATA
    	5,	4,	'L', '1 '
    	5,	5,	'S', '1 '
    	5,	3,	'D', 'EATL P1     '
    0 / END OF SUBSTATION TERMINAL DATA
0 /END OF SUBSTATION DATA
Q
